sim-outorder: SimpleScalar/Alpha Tool Set version 4.0 of December, 2001.
Copyright (C) 2000-2001 by The Regents of The University of Michigan.
Copyright (C) 1994-2001 by Todd M. Austin, Ph.D. and SimpleScalar, LLC.
This version of SimpleScalar is licensed for academic non-commercial use only.

sim: command line: ../../simplescalar/sim-outorder -max:inst 500000000 -cache:il2lat 9 -mem:lat 250 2 -decode:width 4 -issue:width 8 -commit:width 4 -ruu:size 128 -lsq:size 64 ./wrf_base.alpha64-gcc82-static 

sim: simulation started @ Mon Dec 24 20:48:43 2018, options follow:

sim-outorder: This simulator implements a very detailed out-of-order issue
superscalar processor with a two-level memory system and speculative
execution support.  This simulator is a performance simulator, tracking the
latency of all pipeline operations.

# -config                     # load configuration from a file
# -dumpconfig                 # dump configuration to a file
# -h                    false # print help message    
# -v                    false # verbose operation     
# -vr                   false # verbose registers operation
-trigger:inst               0 # trigger instruction for verbose operation
# -d                    false # enable debug message  
# -i                    false # start in Dlite debugger
-seed                       1 # random number generator seed (0 for timer seed)
# -q                    false # initialize and terminate immediately
# -chkpt               <null> # restore EIO trace execution from <fname>
# -redir:sim           <null> # redirect simulator output to file (non-interactive only)
# -redir:prog          <null> # redirect simulated program output to file
-nice                       0 # simulator scheduling priority
-max:inst           500000000 # maximum number of inst's to execute
-fastfwd                    0 # number of insts skipped before timing starts
# -ptrace              <null> # generate pipetrace, i.e., <fname|stdout|stderr> <range>
-fetch:ifqsize              4 # instruction fetch queue size (in insts)
-fetch:mplat                3 # extra branch mis-prediction latency
-fetch:speed                1 # speed of front-end of machine relative to execution core
-fetch:mf_compat        false # optimistic misfetch recovery
-bpred                  bimod # branch predictor type {nottaken|taken|perfect|bimod|2lev|comb}
-bpred:bimod     2048 # bimodal predictor config (<table size>)
-bpred:2lev      1 1024 8 0 # 2-level predictor config (<l1size> <l2size> <hist_size> <xor>)
-bpred:comb      1024 # combining predictor config (<meta_table_size>)
-bpred:ras                  8 # return address stack size (0 for no return stack)
-bpred:btb       512 4 # BTB config (<num_sets> <associativity>)
# -bpred:spec_update       <null> # speculative predictors update in {ID|WB} (default non-spec)
-decode:width               4 # instruction decode B/W (insts/cycle)
-issue:width                8 # instruction issue B/W (insts/cycle)
-issue:inorder          false # run pipeline with in-order issue
-issue:wrongpath         true # issue instructions down wrong execution paths
-commit:width               4 # instruction commit B/W (insts/cycle)
-ruu:size                 128 # register update unit (RUU) size
-lsq:size                  64 # load/store queue (LSQ) size
-lsq:perfect            false # perfect memory disambiguation
-cache:dl1       dl1:128:32:4:l # l1 data cache config, i.e., {<config>|none}
-cache:dl1lat               1 # l1 data cache hit latency (in cycles)
-cache:dl2       ul2:1024:64:4:l # l2 data cache config, i.e., {<config>|none}
-cache:dl2lat               6 # l2 data cache hit latency (in cycles)
-cache:il1       il1:512:32:1:l # l1 inst cache config, i.e., {<config>|dl1|dl2|none}
-cache:il1lat               1 # l1 instruction cache hit latency (in cycles)
-cache:il2                dl2 # l2 instruction cache config, i.e., {<config>|dl2|none}
-cache:il2lat               9 # l2 instruction cache hit latency (in cycles)
-cache:flush            false # flush caches on system calls
-cache:icompress        false # convert 64-bit inst addresses to 32-bit inst equivalents
-mem:lat         250 2 # memory access latency (<first_chunk> <inter_chunk>)
-mem:width                  8 # memory access bus width (in bytes)
-tlb:itlb        itlb:16:4096:4:l # instruction TLB config, i.e., {<config>|none}
-tlb:dtlb        dtlb:32:4096:4:l # data TLB config, i.e., {<config>|none}
-tlb:lat                   30 # inst/data TLB miss latency (in cycles)
-res:ialu                   4 # total number of integer ALU's available
-res:imult                  1 # total number of integer multiplier/dividers available
-res:memport                2 # total number of memory system ports available (to CPU)
-res:fpalu                  4 # total number of floating point ALU's available
-res:fpmult                 1 # total number of floating point multiplier/dividers available
# -pcstat              <null> # profile stat(s) against text addr's (mult uses ok)
-bugcompat              false # operate in backward-compatible bugs mode (for testing only)

  Pipetrace range arguments are formatted as follows:

    {{@|#}<start>}:{{@|#|+}<end>}

  Both ends of the range are optional, if neither are specified, the entire
  execution is traced.  Ranges that start with a `@' designate an address
  range to be traced, those that start with an `#' designate a cycle count
  range.  All other range values represent an instruction count range.  The
  second argument, if specified with a `+', indicates a value relative
  to the first argument, e.g., 1000:+100 == 1000:1100.  Program symbols may
  be used in all contexts.

    Examples:   -ptrace FOO.trc #0:#1000
                -ptrace BAR.trc @2000:
                -ptrace BLAH.trc :1500
                -ptrace UXXE.trc :
                -ptrace FOOBAR.trc @main:+278

  Branch predictor configuration examples for 2-level predictor:
    Configurations:   N, M, W, X
      N   # entries in first level (# of shift register(s))
      W   width of shift register(s)
      M   # entries in 2nd level (# of counters, or other FSM)
      X   (yes-1/no-0) xor history and address for 2nd level index
    Sample predictors:
      GAg     : 1, W, 2^W, 0
      GAp     : 1, W, M (M > 2^W), 0
      PAg     : N, W, 2^W, 0
      PAp     : N, W, M (M == 2^(N+W)), 0
      gshare  : 1, W, 2^W, 1
  Predictor `comb' combines a bimodal and a 2-level predictor.

  The cache config parameter <config> has the following format:

    <name>:<nsets>:<bsize>:<assoc>:<repl>

    <name>   - name of the cache being defined
    <nsets>  - number of sets in the cache
    <bsize>  - block size of the cache
    <assoc>  - associativity of the cache
    <repl>   - block replacement strategy, 'l'-LRU, 'f'-FIFO, 'r'-random

    Examples:   -cache:dl1 dl1:4096:32:1:l
                -dtlb dtlb:128:4096:32:r

  Cache levels can be unified by pointing a level of the instruction cache
  hierarchy at the data cache hiearchy using the "dl1" and "dl2" cache
  configuration arguments.  Most sensible combinations are supported, e.g.,

    A unified l2 cache (il2 is pointed at dl2):
      -cache:il1 il1:128:64:1:l -cache:il2 dl2
      -cache:dl1 dl1:256:32:1:l -cache:dl2 ul2:1024:64:2:l

    Or, a fully unified cache hierarchy (il1 pointed at dl1):
      -cache:il1 dl1
      -cache:dl1 ul1:256:32:1:l -cache:dl2 ul2:1024:64:2:l



sim: ** starting performance simulation **


/**********************************/
F:branch	194419
F:iL1 miss	30276
F:iL2 miss	166216
F:iTLB miss	1170
F:dL1 miss	104101
F:dL2 miss	59480
F:dTLB miss	157
/*************************************/
o:branch	12021
o:iL1 miss	 60435
o:iL2 miss	304750
o:iTLB miss	2490
o:dL1 miss	6600
o:dL2 miss	63750
o:dTLB miss	180
/*************************************/
s:branch	 194419
s:iL1 miss	15360
s:iL2 miss	71536
s:iTLB miss	 540
s:dL1 miss	104101
s:dL2 miss	59480
s:dTLB miss	157
/*************************************/

dl2 miss cnt : 255

sim: ** simulation statistics **
sim_num_insn              500000003 # total number of instructions committed
sim_num_refs              249895789 # total number of loads and stores committed
sim_num_loads             124996579 # total number of loads committed
sim_num_stores         124899210.0000 # total number of stores committed
sim_num_branches          124979620 # total number of branches committed
sim_elapsed_time               1388 # total simulation time in seconds
sim_inst_rate           360230.5497 # simulation speed (in insts/sec)
sim_total_insn            500094331 # total number of instructions executed
sim_total_refs            249922356 # total number of loads and stores executed
sim_total_loads           125022753 # total number of loads executed
sim_total_stores       124899603.0000 # total number of stores executed
sim_total_branches        125007315 # total number of branches executed
sim_cycle                 125700350 # total simulation time in cycles
sim_IPC                      3.9777 # instructions per cycle
sim_CPI                      0.2514 # cycles per instruction
sim_exec_BW                  3.9785 # total instructions (mis-spec + committed) per cycle
sim_IPB                      4.0007 # instruction per branch
IFQ_count                 501077543 # cumulative IFQ occupancy
IFQ_fcount                125183606 # cumulative IFQ full count
ifq_occupancy                3.9863 # avg IFQ occupancy (insn's)
ifq_rate                     3.9785 # avg IFQ dispatch rate (insn/cycle)
ifq_latency                  1.0020 # avg IFQ occupant latency (cycle's)
ifq_full                     0.9959 # fraction of time (cycle's) IFQ was full
RUU_count                2032066751 # cumulative RUU occupancy
RUU_fcount                   204746 # cumulative RUU full count
ruu_occupancy               16.1660 # avg RUU occupancy (insn's)
ruu_rate                     3.9785 # avg RUU dispatch rate (insn/cycle)
ruu_latency                  4.0634 # avg RUU occupant latency (cycle's)
ruu_full                     0.0016 # fraction of time (cycle's) RUU was full
LSQ_count                1010557843 # cumulative LSQ occupancy
LSQ_fcount                     1167 # cumulative LSQ full count
lsq_occupancy                8.0394 # avg LSQ occupancy (insn's)
lsq_rate                     3.9785 # avg LSQ dispatch rate (insn/cycle)
lsq_latency                  2.0207 # avg LSQ occupant latency (cycle's)
lsq_full                     0.0000 # fraction of time (cycle's) LSQ was full
sim_slip                 3787166865 # total number of slip cycles
avg_sim_slip                 7.5743 # the average slip between issue and retirement
misfetch_count                 1152 # misfetch count
misfetch_only_count             964 # misfetch only count
recovery_count                 4007 # recovery count
bpred_bimod.lookups       125009419 # total number of bpred lookups
bpred_bimod.updates       124979616 # total number of updates
bpred_bimod.addr_hits     124975834 # total number of address-predicted hits
bpred_bimod.dir_hits      124976853 # total number of direction-predicted hits (includes addr-hits)
bpred_bimod.misses             2763 # total number of misses
bpred_bimod.jr_hits            5167 # total number of address-predicted hits for JR's
bpred_bimod.jr_seen            5259 # total number of JR's seen
bpred_bimod.jr_non_ras_hits.PP           62 # total number of address-predicted hits for non-RAS JR's
bpred_bimod.jr_non_ras_seen.PP          109 # total number of non-RAS JR's seen
bpred_bimod.bpred_addr_rate    1.0000 # branch address-prediction rate (i.e., addr-hits/updates)
bpred_bimod.bpred_dir_rate    1.0000 # branch direction-prediction rate (i.e., all-hits/updates)
bpred_bimod.bpred_jr_rate    0.9825 # JR address-prediction rate (i.e., JR addr-hits/JRs seen)
bpred_bimod.bpred_jr_non_ras_rate.PP    0.5688 # non-RAS JR addr-pred rate (ie, non-RAS JR hits/JRs seen)
bpred_bimod.retstack_pushes         5266 # total number of address pushed onto ret-addr stack
bpred_bimod.retstack_pops         5357 # total number of address popped off of ret-addr stack
bpred_bimod.used_ras.PP         5150 # total number of RAS predictions used
bpred_bimod.ras_hits.PP         5105 # total number of RAS hits
bpred_bimod.ras_rate.PP    0.9913 # RAS prediction rate (i.e., RAS hits/used RAS)
il1.accesses              500111675 # total number of accesses
il1.hits                  500103658 # total number of hits
il1.misses                     8017 # total number of misses
il1.replacements               7505 # total number of replacements
il1.writebacks                    0 # total number of writebacks
il1.invalidations                 0 # total number of invalidations
il1.miss_rate                0.0000 # miss rate (i.e., misses/ref)
il1.repl_rate                0.0000 # replacement rate (i.e., repls/ref)
il1.wb_rate                  0.0000 # writeback rate (i.e., wrbks/ref)
il1.inv_rate                 0.0000 # invalidation rate (i.e., invs/ref)
dl1.accesses              124992985 # total number of accesses
dl1.hits                  124989194 # total number of hits
dl1.misses                     3791 # total number of misses
dl1.replacements               3279 # total number of replacements
dl1.writebacks                 2978 # total number of writebacks
dl1.invalidations                 0 # total number of invalidations
dl1.miss_rate                0.0000 # miss rate (i.e., misses/ref)
dl1.repl_rate                0.0000 # replacement rate (i.e., repls/ref)
dl1.wb_rate                  0.0000 # writeback rate (i.e., wrbks/ref)
dl1.inv_rate                 0.0000 # invalidation rate (i.e., invs/ref)
ul2.accesses                  14786 # total number of accesses
ul2.hits                      11851 # total number of hits
ul2.misses                     2935 # total number of misses
ul2.replacements                 98 # total number of replacements
ul2.writebacks                    5 # total number of writebacks
ul2.invalidations                 0 # total number of invalidations
ul2.miss_rate                0.1985 # miss rate (i.e., misses/ref)
ul2.repl_rate                0.0066 # replacement rate (i.e., repls/ref)
ul2.wb_rate                  0.0003 # writeback rate (i.e., wrbks/ref)
ul2.inv_rate                 0.0000 # invalidation rate (i.e., invs/ref)
itlb.accesses             500111675 # total number of accesses
itlb.hits                 500111592 # total number of hits
itlb.misses                      83 # total number of misses
itlb.replacements                23 # total number of replacements
itlb.writebacks                   0 # total number of writebacks
itlb.invalidations                0 # total number of invalidations
itlb.miss_rate               0.0000 # miss rate (i.e., misses/ref)
itlb.repl_rate               0.0000 # replacement rate (i.e., repls/ref)
itlb.wb_rate                 0.0000 # writeback rate (i.e., wrbks/ref)
itlb.inv_rate                0.0000 # invalidation rate (i.e., invs/ref)
dtlb.accesses             249841686 # total number of accesses
dtlb.hits                 249841644 # total number of hits
dtlb.misses                      42 # total number of misses
dtlb.replacements                 0 # total number of replacements
dtlb.writebacks                   0 # total number of writebacks
dtlb.invalidations                0 # total number of invalidations
dtlb.miss_rate               0.0000 # miss rate (i.e., misses/ref)
dtlb.repl_rate               0.0000 # replacement rate (i.e., repls/ref)
dtlb.wb_rate                 0.0000 # writeback rate (i.e., wrbks/ref)
dtlb.inv_rate                0.0000 # invalidation rate (i.e., invs/ref)
sim_invalid_addrs             51796 # total non-speculative bogus addresses seen (debug var)
ld_text_base           0x0120000220 # program text (code) segment base
ld_text_size                4992784 # program text (code) size in bytes
ld_data_base           0x0120578000 # program initialized data segment base
ld_data_size                  36688 # program init'ed `.data' and uninit'ed `.bss' size in bytes
ld_stack_base          0x0000000000 # program stack segment base (highest address in stack)
ld_stack_size            3766484992 # program initial stack size
ld_prog_entry          0x0120000620 # program entry point (initial PC)
ld_environ_base        0x011f800000 # program environment base address address
ld_target_big_endian              0 # target executable endian-ness, non-zero if big endian
mem.page_count                  720 # total number of pages allocated
mem.page_mem                  5760k # total size of memory pages allocated
mem.ptab_misses                1402 # total first level page table misses
mem.ptab_accesses        5009881938 # total page table accesses
mem.ptab_miss_rate           0.0000 # first level page table miss rate

